! DLPNO-CCSD(T) def2-TZVPP def2-TZVPP/C VeryTightSCF
%maxcore 3400

%pal nprocs 8 
end

*xyz 1 1
 C       -3.028983        2.475489       -1.761781
 N       -2.177282        1.896979       -0.692777
 C       -2.923816        1.522163        0.556124
 C       -2.081900        0.625027        1.447353
 C       -1.691733       -0.703329        0.774461
 C       -2.900779       -1.434014        0.228806
 C       -3.099150       -1.631928       -1.131872
 C       -4.251592       -2.261250       -1.586807
 C       -5.209747       -2.699318       -0.689013
 C       -5.008510       -2.517845        0.672577
 C       -3.861960       -1.889883        1.127545
 O       -0.803261       -0.439865       -0.313354
 C        0.511974       -0.114556       -0.080657
 C        1.217704        0.309671       -1.201185
 C        2.546696        0.665822       -1.084047
 C        3.178167        0.597812        0.150490
 C        2.473314        0.166393        1.260014
 C        1.136635       -0.191205        1.155260
 C        4.613337        1.039369        0.288810
 F        5.301996        0.839241       -0.839122
 F        4.684436        2.350846        0.570030
 F        5.239886        0.388505        1.273058
 H       -2.404032        2.750101       -2.607316
 H       -3.539833        3.353490       -1.374781
 H       -3.754846        1.724468       -2.062970
 H       -1.428621        2.544819       -0.452537
 H       -3.827673        1.008920        0.229934
 H       -3.207039        2.446538        1.056705
 H       -2.668600        0.414340        2.341401
 H       -1.184312        1.149313        1.783755
 H       -1.192437       -1.344774        1.502247
 H       -2.339894       -1.333445       -1.842277
 H       -4.389422       -2.421549       -2.648289
 H       -6.103546       -3.194324       -1.044716
 H       -5.742720       -2.874967        1.382663
 H       -3.711609       -1.769845        2.194788
 H        0.726085        0.322253       -2.166158
 H        3.098322        0.984117       -1.958216
 H        2.965992        0.100304        2.220681
 H        0.616754       -0.533609        2.037976
 H       -1.698975        1.041905       -1.014861
*

