! DLPNO-CCSD(T) def2-TZVPP def2-TZVPP/C VeryTightSCF
%maxcore 3400

%pal nprocs 8 
end

*xyz 1 1
 C       -3.530694        2.781360       -1.850126
 N       -3.036522        2.535871       -0.472741
 C       -3.894877        1.606086        0.337481
 C       -3.140863        1.089628        1.550523
 C       -1.935456        0.209130        1.199481
 C       -2.333514       -0.987237        0.358380
 C       -2.079042       -1.044111       -1.006388
 C       -2.511811       -2.129619       -1.755750
 C       -3.202272       -3.164971       -1.147107
 C       -3.449777       -3.118502        0.217549
 C       -3.015463       -2.036735        0.965830
 O       -1.012952        1.071058        0.530276
 C        0.318342        0.721835        0.439688
 C        0.818724       -0.505282        0.840044
 C        2.178851       -0.750035        0.711424
 C        3.021538        0.212808        0.186431
 C        2.505843        1.437299       -0.217868
 C        1.156292        1.694167       -0.088913
 C        4.489910       -0.074905        0.002607
 F        5.230825        1.027877        0.164494
 F        4.929580       -0.991856        0.869905
 F        4.738967       -0.540299       -1.231218
 H       -4.537418        3.188701       -1.801578
 H       -3.539653        1.834894       -2.384477
 H       -2.868356        3.483771       -2.349063
 H       -2.944238        3.418603        0.025888
 H       -4.173557        0.786721       -0.324539
 H       -4.795244        2.150705        0.616514
 H       -3.841415        0.498974        2.140629
 H       -2.810582        1.915250        2.185421
 H       -1.482000       -0.126482        2.135757
 H       -1.506556       -0.260769       -1.488863
 H       -2.295387       -2.170760       -2.815325
 H       -3.535508       -4.012877       -1.730566
 H       -3.974897       -3.931004        0.702200
 H       -3.201426       -2.017723        2.034334
 H        0.176665       -1.280012        1.232805
 H        2.577450       -1.705015        1.025342
 H        3.163041        2.195264       -0.621952
 H        0.749639        2.653737       -0.381568
 H       -2.089849        2.121670       -0.474780
*

