41
	Energy:      74.3102073
F         -4.94835       -0.26648        1.53671
F         -5.30434       -0.81632       -0.53810
F         -5.35987        1.27470        0.05942
O          0.86360        0.67920       -0.79980
N          4.02567        3.36731       -0.05567
C          1.75761        0.28918        0.25764
C          3.04572        1.11269        0.07827
C          2.09153       -1.19066        0.19334
C          2.74533        2.60480        0.10843
C          2.23945       -1.85762       -1.03341
C          2.29409       -1.91262        1.38041
C         -0.45967        0.52870       -0.48416
C          2.56756       -3.21381       -1.07064
C          2.62724       -3.26777        1.33970
C         -1.21277       -0.34196       -1.26841
C         -1.07365        1.28904        0.50976
C         -3.20990        0.24574       -0.01554
C          2.76234       -3.91754        0.11523
C          3.85522        4.84621       -0.03301
C         -2.58048       -0.49165       -1.02921
C         -2.44220        1.14072        0.74841
C         -4.69070        0.10495        0.25279
H          1.33192        0.52637        1.24179
H          3.76935        0.85618        0.86251
H          3.51597        0.87010       -0.88428
H          2.08859        2.91185       -0.71139
H          2.31048        2.90556        1.06717
H          2.08664       -1.33108       -1.97317
H          2.18700       -1.43350        2.35111
H          4.46644        3.10142       -0.94792
H          2.66540       -3.72587       -2.02521
H          2.77493       -3.82212        2.26390
H         -0.74012       -0.91421       -2.06269
H         -0.51346        2.00871        1.09650
H          3.01302       -4.97552        0.08533
H          4.84407        5.29103       -0.16329
H          3.43135        5.12766        0.93381
H          3.19459        5.12872       -0.85597
H         -3.15477       -1.18570       -1.64254
H         -2.91998        1.73240        1.52902
H          4.69303        3.09671        0.67987
