#opt

crest_conformers

1 1
 C         -2.7033128224        4.4465156995        1.1017398110
 N         -2.3967353704        3.2994148472        0.2333762945
 C         -3.5890496337        2.5569156494       -0.2541362051
 C         -3.1731467893        1.1820464726       -0.7714680923
 C         -2.5924378208        0.3123452881        0.3560796943
 C         -2.3275399088       -1.1358764394        0.0029467886
 C         -1.8102532912       -1.9510624320        1.0054904903
 C         -1.5269614908       -3.2802728628        0.7556338253
 C         -1.7682884807       -3.8151050264       -0.4986318395
 C         -2.2932980018       -3.0133966215       -1.4965066853
 C         -2.5692693857       -1.6782813143       -1.2523096018
 O         -1.4305033789        0.9556272084        0.9385561119
 C         -0.1456784890        0.5924806533        0.5680623223
 C          0.8251120134        0.7623084670        1.5506460354
 C          2.1471677307        0.4800179094        1.2741682707
 C          2.4983007908        0.0196753771        0.0118578638
 C          1.5334280519       -0.1439286748       -0.9703700923
 C          0.2091120464        0.1491525735       -0.6982584617
 C          3.9428025158       -0.2558884664       -0.3123943132
 F          4.0860162502       -1.2284262459       -1.2197599102
 F          4.5387751734        0.8380425236       -0.8258983542
 F          4.6528351305       -0.6087290862        0.7633839461
 H         -3.3363097053        5.1607316738        0.5773005414
 H         -1.7842121809        4.9446490917        1.4025212934
 H         -3.2236833508        4.1040277587        1.9937498307
 H         -1.8271519300        2.5602212625        0.7397199985
 H         -4.0885750581        3.1345135714       -1.0343988599
 H         -4.2781686533        2.4419105240        0.5853984804
 H         -2.4530113420        1.2918483858       -1.5840755829
 H         -4.0592106635        0.6851466953       -1.1645232771
 H         -3.3102860792        0.3221833855        1.1899977617
 H         -1.6270805978       -1.5374844811        1.9867436640
 H         -1.1237721140       -3.8981191584        1.5423867744
 H         -1.5516561270       -4.8528896018       -0.6962205253
 H         -2.4890343208       -3.4244609070       -2.4745833056
 H         -2.9748506025       -1.0779433093       -2.0521201838
 H          0.5290199993        1.1069433164        2.5287812141
 H          2.9006498845        0.6023150053        2.0360291336
 H          1.8138776317       -0.5012223116       -1.9486491079
 H         -0.5268978224        0.0061690731       -1.4712825963
 H         -1.8407425411        3.6143747459       -0.5680281219
  





