#opt

crest_conformers

1 1
 C         -1.5277291986        3.9784710344       -0.1050372519
 N         -2.3865151964        3.2178642603        0.8190474675
 C         -3.5683508538        2.5776346783        0.1756884675
 C         -3.1798536769        1.2510584168       -0.4735463264
 C         -2.6293870621        0.2556883703        0.5607835186
 C         -2.4180147329       -1.1619403270        0.0704054378
 C         -1.8796637896       -2.0736226307        0.9736948718
 C         -1.6481879453       -3.3832769378        0.5982648870
 C         -1.9629754263       -3.8014815425       -0.6836588544
 C         -2.5084684272       -2.9030509908       -1.5833949142
 C         -2.7330679284       -1.5873468813       -1.2135128319
 O         -1.4440763768        0.7964206460        1.1944679782
 C         -0.1730862667        0.5085441422        0.7264156276
 C          0.8442789375        0.6659624045        1.6641496959
 C          2.1590435031        0.4556652049        1.3035765294
 C          2.4588253165        0.0819839795       -0.0001066410
 C          1.4480311342       -0.0706965466       -0.9364777621
 C          0.1292896364        0.1483783891       -0.5790538750
 C          3.8926289205       -0.1106403882       -0.4177937811
 F          4.0262854169       -1.0392124158       -1.3712938106
 F          4.4043970388        1.0306387824       -0.9202236317
 F          4.6816626338       -0.4682018415        0.5993313928
 H         -0.6754290031        4.3895266835        0.4316080425
 H         -2.0877068483        4.7958117894       -0.5566845147
 H         -1.1564708656        3.3267059981       -0.8922454472
 H         -2.6869229333        3.8326683899        1.5795271261
 H         -3.9898802685        3.2600633848       -0.5651136931
 H         -4.3209573790        2.3954566414        0.9455556468
 H         -2.4542463548        1.4158564981       -1.2702081070
 H         -4.0785570486        0.8244279562       -0.9171350634
 H         -3.3416449137        0.2107986947        1.3985433435
 H         -1.6391863236       -1.7512134403        1.9765166550
 H         -1.2279229409       -4.0768851053        1.3092886959
 H         -1.7872100125       -4.8236676273       -0.9789429672
 H         -2.7608490936       -3.2227025014       -2.5824135370
 H         -3.1559189525       -0.9099204113       -1.9393965477
 H          0.5890407695        0.9415436613        2.6752109994
 H          2.9474082152        0.5677333589        2.0308765601
 H          1.6877073457       -0.3632496874       -1.9465971410
 H         -0.6404636819        0.0091158842       -1.3189168517
 H         -1.8386100132        2.3984380481        1.2160802983
  





