! wB97X-D3 TightOpt Freq def2-TZVPP def2/J RIJCOSX TightSCF defgrid3 CHELPG
%maxcore 3200

%pal nprocs 8 
end

%chelpg
grid 0.1
rmax 3.0
end


*xyz 1 1
 C    -3.6101077683    2.8748967342    -1.3698301904
 N    -2.9223437950    2.4577892272    -0.1381856578
 C    -3.7247005183    1.5625600877    0.7372400521
 C    -2.8069912275    0.8449183721    1.7197904834
 C    -1.8211020834    -0.0946658104    0.9933942465
 C    -2.5642715366    -1.1259157001    0.1650682491
 C    -3.1676422896    -2.1972476974    0.8131876492
 C    -3.8717249987    -3.1425943501    0.0901779227
 C    -3.9760461334    -3.0298471544    -1.2868510042
 C    -3.3696407590    -1.9704350802    -1.9380673595
 C    -2.6696363970    -1.0190601241    -1.2150510730
 O    -0.9633359826    0.7048590423    0.1660361838
 C    0.4060260944    0.5034393367    0.1992144173
 C    1.1128626211    0.3192944081    1.3797168661
 C    2.4884170156    0.1824053116    1.3385861958
 C    3.1524889253    0.2358720252    0.1223022346
 C    2.4484973245    0.4375260842    -1.0576409167
 C    1.0748888026    0.5693112555    -1.0181489357
 C    4.6536361299    0.1242835704    0.0726893692
 F    5.2301464602    1.3395079255    0.0225236080
 F    5.1600818201    -0.4968515647    1.1424991095
 F    5.0759191551    -0.5423468508    -1.0087125222
 H    -3.8577993438    1.9985631965    -1.9656265287
 H    -2.9695422984    3.5309041993    -1.9554544596
 H    -4.5297239459    3.4050962688    -1.1276729425
 H    -2.6357995535    3.2853345642    0.3948126068
 H    -4.2198645857    0.8238053020    0.1026609897
 H    -4.4852705150    2.1448952341    1.2598715092
 H    -3.4165901371    0.2482447802    2.3968644508
 H    -2.2482528877    1.5686355975    2.3170507056
 H    -1.2248089358    -0.6215091744    1.7441256025
 H    -3.0763582714    -2.2963267211    1.8847532942
 H    -4.3322773788    -3.9728809025    0.6017419243
 H    -4.5196089265    -3.7711300700    -1.8507077233
 H    -3.4359748278    -1.8837473476    -3.0116698142
 H    -2.1774474647    -0.2094300784    -1.7352155658
 H    0.6100814718    0.2920090117    2.3342349911
 H    3.0429985667    0.0366742488    2.2521900135
 H    2.9724259303    0.4783421320    -1.9995469364
 H    0.5153404538    0.7179464963    -1.9281024278
 H    -2.0470544725    1.9128799322    -0.3464556567
*

