! wB97X-D3 TightOpt Freq def2-TZVPP def2/J RIJCOSX TightSCF defgrid3 CHELPG
%maxcore 3200

%pal nprocs 8 
end

%chelpg
grid 0.1
rmax 3.0
end


*xyz 1 1
 C    -3.2947352093    2.4193279533    -1.7461468918
 N    -2.4576777266    2.0958935384    -0.5803045590
 C    -3.2185815889    1.6079314175    0.6015919843
 C    -2.2928357345    0.8198099273    1.5222520910
 C    -1.7102148419    -0.4163781023    0.7985810849
 C    -2.8202177356    -1.2703781265    0.2145400751
 C    -3.0507783481    -1.3437833943    -1.1527209411
 C    -4.0862355298    -2.1215239132    -1.6444620622
 C    -4.9020572100    -2.8244083865    -0.7757326464
 C    -4.6718638097    -2.7591746224    0.5890017812
 C    -3.6353657632    -1.9881737091    1.0825453682
 O    -0.8375749525    0.0102382295    -0.2527777190
 C    0.5239474446    0.1020864338    -0.0448348976
 C    1.2877693664    0.2290404389    -1.2034208722
 C    2.6578596742    0.3600449930    -1.1204035355
 C    3.2711121868    0.3636037678    0.1263654383
 C    2.5137668146    0.2414754516    1.2805022221
 C    1.1374306357    0.1141803726    1.1997811981
 C    4.7612803523    0.5544223952    0.2273416256
 F    5.4121167763    0.0809870676    -0.8397621571
 F    5.0738482146    1.8620358856    0.3193821658
 F    5.2817108047    -0.0385249401    1.3067141713
 H    -2.6760978636    2.7824050165    -2.5641293985
 H    -4.0229579856    3.1864568697    -1.4881380392
 H    -3.8244389459    1.5263934294    -2.0728274034
 H    -1.9029191700    2.9160693763    -0.3151849283
 H    -4.0120317848    0.9490552184    0.2417397860
 H    -3.6725123432    2.4516655834    1.1239827400
 H    -2.8625525634    0.4865733300    2.3882420931
 H    -1.4790222467    1.4555316914    1.8780471863
 H    -1.1517508083    -1.0267557082    1.5152719637
 H    -2.3999673581    -0.8255876707    -1.8416622354
 H    -4.2491504512    -2.1812147419    -2.7095268421
 H    -5.7065123173    -3.4307870510    -1.1604137245
 H    -5.2947256614    -3.3165592352    1.2705258622
 H    -3.4501258354    -1.9541641360    2.1458457411
 H    0.7963402675    0.2076485304    -2.1632483521
 H    3.2513302149    0.4488160421    -2.0164670756
 H    2.9957213945    0.2444395599    2.2455105242
 H    0.5732402473    0.0244400049    2.1142401210
 H    -1.7755457822    1.3190161977    -0.7979023084
*

