  41
        -66.86764411
 C         -3.3566452018        2.7575555447       -1.8550044528
 N         -3.0256177114        2.5390634414       -0.4385250868
 C         -3.9328695935        1.5951563473        0.2661241203
 C         -3.2724681224        1.1143173662        1.5524158121
 C         -2.0060050464        0.2778486287        1.2773796413
 C         -2.3302597563       -0.9272162327        0.4177761408
 C         -2.0796696805       -0.9396926291       -0.9485754109
 C         -2.4066252321       -2.0507276407       -1.7077944137
 C         -2.9950022970       -3.1514929446       -1.1106136251
 C         -3.2478912407       -3.1439227151        0.2517258593
 C         -2.9155449996       -2.0385951082        1.0133040630
 O         -1.0593168727        1.1642227816        0.6711503628
 C          0.2523360754        0.7612253912        0.5181507867
 C          0.7331870155       -0.4937534904        0.8603306562
 C          2.0704650867       -0.7884319026        0.6588142760
 C          2.9206127676        0.1645056587        0.1202928415
 C          2.4387120264        1.4206655348       -0.2259518511
 C          1.1069129069        1.7172456777       -0.0261665182
 C          4.3649853862       -0.1720606090       -0.1381024436
 F          5.1675543252        0.8903261978        0.0010984674
 F          4.8254362129       -1.1246499182        0.6792151997
 F          4.5427763825       -0.6230047630       -1.3943720658
 H         -4.3653632970        3.1562946703       -1.9496949008
 H         -3.3016561748        1.8142838740       -2.3950280917
 H         -2.6571738050        3.4607741886       -2.3020807536
 H         -3.0202125093        3.4357247742        0.0584564217
 H         -4.1117915358        0.7413637490       -0.3919186037
 H         -4.8855800531        2.0852309250        0.4728394322
 H         -3.9791981522        0.4917975682        2.0992239463
 H         -3.0092830433        1.9628388921        2.1866163236
 H         -1.6081391312       -0.0579350863        2.2439054419
 H         -1.5956314604       -0.0977994062       -1.4255099225
 H         -2.1959555553       -2.0544493897       -2.7659748309
 H         -3.2476757107       -4.0163945347       -1.7028860554
 H         -3.6974848234       -4.0029414628        0.7239684511
 H         -3.1010501730       -2.0395682680        2.0773785696
 H          0.0866541991       -1.2516471812        1.2703474144
 H          2.4496572185       -1.7623171923        0.9252744501
 H          3.1043050710        2.1602571173       -0.6420576740
 H          0.7233736848        2.6933425002       -0.2804328678
 H         -2.0665207686        2.1197712735       -0.3149157273
